<routes>
        <vType accel="3.0" decel="6.0" id="CarA" length="5.0" minGap="2.5" maxSpeed="50.0" sigma="0.5" />
        <vType accel="2.5" decel="6.0" id="CarB" length="7.5" minGap="2.5" maxSpeed="50.0" sigma="0.5" />
        <vType accel="2.0" decel="5.0" id="CarC" length="5.0" minGap="2.5" maxSpeed="40.0" sigma="0.5" />
        <vType accel="1.5" decel="5.0" id="CarD" length="7.5" minGap="2.5" maxSpeed="30.0" sigma="0.5" />
        
        <route id="EW" edges="Ei Wo" />
        <route id="ES" edges="Ei So" />
        <route id="EN" edges="Ei No" />
        
        <route id="WN" edges="Wi No" />
        <route id="WS" edges="Wi So" />
        <route id="WE" edges="Wi Eo" />
        
        <route id="SN" edges="Si No" />
        <route id="SE" edges="Si Eo" />
        <route id="SW" edges="Si Wo" />
        
        <route id="NS" edges="Ni So" />
        <route id="NE" edges="Ni Eo" />
        <route id="NW" edges="Ni Wo" />
    <vehicle id="south_0" type="CarA" route="SN" depart="0" color="red"/>
    <vehicle id="south_1" type="CarA" route="SE" depart="1" color="red"/>
    <vehicle id="north_2" type="CarC" route="NS" depart="2" color="blue"/>
    <vehicle id="south_3" type="CarC" route="SW" depart="3" color="red"/>
    <vehicle id="west_4" type="CarB" route="WE" depart="3" color="yellow"/>
    <vehicle id="north_5" type="CarD" route="NS" depart="4" color="blue"/>
    <vehicle id="south_6" type="CarB" route="SN" depart="7" color="red"/>
    <vehicle id="east_7" type="CarA" route="EN" depart="7" color="green"/>
    <vehicle id="west_8" type="CarB" route="WN" depart="12" color="yellow"/>
    <vehicle id="east_9" type="CarA" route="EN" depart="17" color="green"/>
    <vehicle id="east_10" type="CarD" route="ES" depart="18" color="green"/>
    <vehicle id="east_11" type="CarC" route="EW" depart="19" color="green"/>
    <vehicle id="east_12" type="CarB" route="ES" depart="20" color="green"/>
    <vehicle id="west_13" type="CarD" route="WE" depart="21" color="yellow"/>
    <vehicle id="west_14" type="CarC" route="WE" depart="22" color="yellow"/>
    <vehicle id="east_15" type="CarA" route="EN" depart="23" color="green"/>
    <vehicle id="west_16" type="CarD" route="WE" depart="24" color="yellow"/>
    <vehicle id="north_17" type="CarA" route="NE" depart="25" color="blue"/>
    <vehicle id="west_18" type="CarC" route="WS" depart="25" color="yellow"/>
    <vehicle id="east_19" type="CarA" route="ES" depart="30" color="green"/>
    <vehicle id="south_20" type="CarC" route="SN" depart="31" color="red"/>
    <vehicle id="west_21" type="CarC" route="WE" depart="31" color="yellow"/>
    <vehicle id="west_22" type="CarB" route="WN" depart="32" color="yellow"/>
    <vehicle id="south_23" type="CarB" route="SE" depart="34" color="red"/>
    <vehicle id="south_24" type="CarD" route="SW" depart="37" color="red"/>
    <vehicle id="south_25" type="CarD" route="SE" depart="39" color="red"/>
    <vehicle id="north_26" type="CarC" route="NE" depart="43" color="blue"/>
    <vehicle id="north_27" type="CarC" route="NS" depart="44" color="blue"/>
    <vehicle id="west_28" type="CarA" route="WE" depart="44" color="yellow"/>
    <vehicle id="east_29" type="CarD" route="ES" depart="48" color="green"/>
    <vehicle id="north_30" type="CarB" route="NS" depart="49" color="blue"/>
    <vehicle id="west_31" type="CarB" route="WE" depart="51" color="yellow"/>
    <vehicle id="west_32" type="CarC" route="WN" depart="52" color="yellow"/>
    <vehicle id="south_33" type="CarB" route="SE" depart="55" color="red"/>
    <vehicle id="east_34" type="CarC" route="EW" depart="55" color="green"/>
    <vehicle id="west_35" type="CarD" route="WN" depart="56" color="yellow"/>
    <vehicle id="south_36" type="CarD" route="SN" depart="58" color="red"/>
    <vehicle id="west_37" type="CarD" route="WE" depart="59" color="yellow"/>
    <vehicle id="north_38" type="CarB" route="NW" depart="62" color="blue"/>
    <vehicle id="west_39" type="CarD" route="WE" depart="63" color="yellow"/>
    <vehicle id="east_40" type="CarB" route="EN" depart="65" color="green"/>
    <vehicle id="west_41" type="CarA" route="WE" depart="67" color="yellow"/>
    <vehicle id="east_42" type="CarC" route="ES" depart="68" color="green"/>
    <vehicle id="east_43" type="CarC" route="EW" depart="70" color="green"/>
    <vehicle id="west_44" type="CarB" route="WS" depart="71" color="yellow"/>
    <vehicle id="north_45" type="CarB" route="NS" depart="76" color="blue"/>
    <vehicle id="east_46" type="CarC" route="ES" depart="78" color="green"/>
    <vehicle id="south_47" type="CarB" route="SN" depart="80" color="red"/>
    <vehicle id="west_48" type="CarC" route="WS" depart="80" color="yellow"/>
    <vehicle id="south_49" type="CarD" route="SW" depart="82" color="red"/>
    <vehicle id="east_50" type="CarA" route="ES" depart="82" color="green"/>
    <vehicle id="south_51" type="CarD" route="SN" depart="83" color="red"/>
    <vehicle id="north_52" type="CarB" route="NS" depart="89" color="blue"/>
    <vehicle id="west_53" type="CarC" route="WN" depart="89" color="yellow"/>
    <vehicle id="south_54" type="CarC" route="SE" depart="90" color="red"/>
    <vehicle id="west_55" type="CarD" route="WS" depart="92" color="yellow"/>
    <vehicle id="south_56" type="CarC" route="SE" depart="95" color="red"/>
    <vehicle id="west_57" type="CarA" route="WS" depart="95" color="yellow"/>
    <vehicle id="south_58" type="CarC" route="SE" depart="96" color="red"/>
    <vehicle id="east_59" type="CarA" route="ES" depart="96" color="green"/>
    <vehicle id="north_60" type="CarA" route="NE" depart="97" color="blue"/>
    <vehicle id="west_61" type="CarC" route="WN" depart="98" color="yellow"/>
    <vehicle id="west_62" type="CarA" route="WN" depart="100" color="yellow"/>
    <vehicle id="south_63" type="CarD" route="SW" depart="103" color="red"/>
    <vehicle id="east_64" type="CarB" route="EN" depart="103" color="green"/>
    <vehicle id="west_65" type="CarC" route="WE" depart="104" color="yellow"/>
    <vehicle id="east_66" type="CarC" route="EW" depart="108" color="green"/>
    <vehicle id="south_67" type="CarA" route="SW" depart="112" color="red"/>
    <vehicle id="south_68" type="CarA" route="SW" depart="113" color="red"/>
    <vehicle id="north_69" type="CarA" route="NW" depart="115" color="blue"/>
    <vehicle id="north_70" type="CarC" route="NS" depart="117" color="blue"/>
    <vehicle id="west_71" type="CarA" route="WN" depart="119" color="yellow"/>
    <vehicle id="south_72" type="CarA" route="SN" depart="122" color="red"/>
    <vehicle id="west_73" type="CarB" route="WS" depart="122" color="yellow"/>
    <vehicle id="west_74" type="CarB" route="WE" depart="123" color="yellow"/>
    <vehicle id="south_75" type="CarB" route="SW" depart="125" color="red"/>
    <vehicle id="north_76" type="CarA" route="NE" depart="126" color="blue"/>
    <vehicle id="south_77" type="CarC" route="SW" depart="127" color="red"/>
    <vehicle id="west_78" type="CarB" route="WN" depart="131" color="yellow"/>
    <vehicle id="south_79" type="CarB" route="SN" depart="136" color="red"/>
    <vehicle id="south_80" type="CarC" route="SW" depart="137" color="red"/>
    <vehicle id="south_81" type="CarB" route="SN" depart="138" color="red"/>
    <vehicle id="north_82" type="CarD" route="NW" depart="139" color="blue"/>
    <vehicle id="east_83" type="CarB" route="EW" depart="140" color="green"/>
    <vehicle id="south_84" type="CarB" route="SE" depart="142" color="red"/>
    <vehicle id="east_85" type="CarC" route="EW" depart="149" color="green"/>
    <vehicle id="west_86" type="CarD" route="WE" depart="150" color="yellow"/>
    <vehicle id="south_87" type="CarB" route="SW" depart="151" color="red"/>
    <vehicle id="south_88" type="CarC" route="SW" depart="160" color="red"/>
    <vehicle id="north_89" type="CarC" route="NE" depart="162" color="blue"/>
    <vehicle id="west_90" type="CarC" route="WN" depart="167" color="yellow"/>
    <vehicle id="north_91" type="CarD" route="NE" depart="169" color="blue"/>
    <vehicle id="north_92" type="CarB" route="NW" depart="170" color="blue"/>
    <vehicle id="west_93" type="CarC" route="WE" depart="171" color="yellow"/>
    <vehicle id="east_94" type="CarD" route="EW" depart="173" color="green"/>
    <vehicle id="east_95" type="CarB" route="ES" depart="179" color="green"/>
    <vehicle id="south_96" type="CarC" route="SN" depart="184" color="red"/>
    <vehicle id="west_97" type="CarD" route="WS" depart="184" color="yellow"/>
    <vehicle id="south_98" type="CarA" route="SW" depart="187" color="red"/>
    <vehicle id="east_99" type="CarB" route="ES" depart="189" color="green"/>
    <vehicle id="east_100" type="CarC" route="EW" depart="191" color="green"/>
    <vehicle id="south_101" type="CarD" route="SW" depart="192" color="red"/>
    <vehicle id="north_102" type="CarA" route="NW" depart="194" color="blue"/>
    <vehicle id="west_103" type="CarA" route="WS" depart="195" color="yellow"/>
    <vehicle id="west_104" type="CarB" route="WS" depart="196" color="yellow"/>
    <vehicle id="east_105" type="CarC" route="EW" depart="197" color="green"/>
    <vehicle id="west_106" type="CarB" route="WE" depart="198" color="yellow"/>
    <vehicle id="west_107" type="CarA" route="WE" depart="199" color="yellow"/>
    <vehicle id="east_108" type="CarA" route="EW" depart="200" color="green"/>
    <vehicle id="north_109" type="CarA" route="NW" depart="202" color="blue"/>
    <vehicle id="south_110" type="CarA" route="SN" depart="202" color="red"/>
    <vehicle id="west_111" type="CarD" route="WN" depart="202" color="yellow"/>
    <vehicle id="west_112" type="CarC" route="WE" depart="203" color="yellow"/>
    <vehicle id="west_113" type="CarD" route="WE" depart="205" color="yellow"/>
    <vehicle id="west_114" type="CarB" route="WS" depart="206" color="yellow"/>
    <vehicle id="west_115" type="CarC" route="WN" depart="207" color="yellow"/>
    <vehicle id="north_116" type="CarC" route="NS" depart="208" color="blue"/>
    <vehicle id="west_117" type="CarD" route="WE" depart="209" color="yellow"/>
    <vehicle id="south_118" type="CarC" route="SE" depart="212" color="red"/>
    <vehicle id="west_119" type="CarA" route="WE" depart="212" color="yellow"/>
    <vehicle id="south_120" type="CarC" route="SN" depart="213" color="red"/>
    <vehicle id="west_121" type="CarC" route="WS" depart="214" color="yellow"/>
    <vehicle id="east_122" type="CarB" route="EW" depart="217" color="green"/>
    <vehicle id="west_123" type="CarD" route="WE" depart="219" color="yellow"/>
    <vehicle id="south_124" type="CarC" route="SW" depart="221" color="red"/>
    <vehicle id="west_125" type="CarA" route="WS" depart="221" color="yellow"/>
    <vehicle id="north_126" type="CarA" route="NS" depart="224" color="blue"/>
    <vehicle id="south_127" type="CarB" route="SE" depart="226" color="red"/>
    <vehicle id="south_128" type="CarC" route="SE" depart="227" color="red"/>
    <vehicle id="east_129" type="CarA" route="EN" depart="227" color="green"/>
    <vehicle id="west_130" type="CarB" route="WN" depart="227" color="yellow"/>
    <vehicle id="north_131" type="CarA" route="NW" depart="228" color="blue"/>
    <vehicle id="east_132" type="CarA" route="EW" depart="229" color="green"/>
    <vehicle id="west_133" type="CarD" route="WE" depart="229" color="yellow"/>
    <vehicle id="south_134" type="CarD" route="SN" depart="231" color="red"/>
    <vehicle id="south_135" type="CarA" route="SW" depart="232" color="red"/>
    <vehicle id="east_136" type="CarD" route="ES" depart="234" color="green"/>
    <vehicle id="east_137" type="CarB" route="ES" depart="240" color="green"/>
    <vehicle id="north_138" type="CarB" route="NE" depart="241" color="blue"/>
    <vehicle id="east_139" type="CarA" route="EW" depart="241" color="green"/>
    <vehicle id="south_140" type="CarD" route="SN" depart="245" color="red"/>
    <vehicle id="east_141" type="CarC" route="EN" depart="249" color="green"/>
    <vehicle id="west_142" type="CarD" route="WN" depart="257" color="yellow"/>
    <vehicle id="north_143" type="CarD" route="NE" depart="259" color="blue"/>
    <vehicle id="south_144" type="CarA" route="SE" depart="259" color="red"/>
    <vehicle id="south_145" type="CarC" route="SN" depart="266" color="red"/>
    <vehicle id="west_146" type="CarD" route="WS" depart="268" color="yellow"/>
    <vehicle id="west_147" type="CarC" route="WN" depart="269" color="yellow"/>
    <vehicle id="west_148" type="CarD" route="WE" depart="270" color="yellow"/>
    <vehicle id="south_149" type="CarB" route="SN" depart="273" color="red"/>
    <vehicle id="east_150" type="CarB" route="EN" depart="274" color="green"/>
    <vehicle id="west_151" type="CarD" route="WS" depart="274" color="yellow"/>
    <vehicle id="south_152" type="CarC" route="SW" depart="275" color="red"/>
    <vehicle id="east_153" type="CarA" route="ES" depart="275" color="green"/>
    <vehicle id="west_154" type="CarC" route="WS" depart="275" color="yellow"/>
    <vehicle id="west_155" type="CarA" route="WE" depart="276" color="yellow"/>
    <vehicle id="south_156" type="CarB" route="SW" depart="279" color="red"/>
    <vehicle id="west_157" type="CarD" route="WS" depart="280" color="yellow"/>
    <vehicle id="east_158" type="CarB" route="EW" depart="282" color="green"/>
    <vehicle id="north_159" type="CarA" route="NS" depart="283" color="blue"/>
    <vehicle id="west_160" type="CarD" route="WS" depart="284" color="yellow"/>
    <vehicle id="east_161" type="CarD" route="ES" depart="285" color="green"/>
    <vehicle id="south_162" type="CarD" route="SE" depart="288" color="red"/>
    <vehicle id="north_163" type="CarB" route="NE" depart="289" color="blue"/>
    <vehicle id="south_164" type="CarB" route="SW" depart="290" color="red"/>
    <vehicle id="east_165" type="CarB" route="ES" depart="291" color="green"/>
    <vehicle id="south_166" type="CarD" route="SN" depart="293" color="red"/>
    <vehicle id="west_167" type="CarB" route="WE" depart="296" color="yellow"/>
    <vehicle id="south_168" type="CarB" route="SW" depart="299" color="red"/>
    <vehicle id="north_169" type="CarD" route="NW" depart="300" color="blue"/>
    <vehicle id="west_170" type="CarD" route="WS" depart="300" color="yellow"/>
    <vehicle id="east_171" type="CarA" route="EN" depart="302" color="green"/>
    <vehicle id="north_172" type="CarB" route="NE" depart="303" color="blue"/>
    <vehicle id="north_173" type="CarD" route="NS" depart="304" color="blue"/>
    <vehicle id="south_174" type="CarC" route="SW" depart="305" color="red"/>
    <vehicle id="north_175" type="CarA" route="NS" depart="308" color="blue"/>
    <vehicle id="west_176" type="CarC" route="WN" depart="310" color="yellow"/>
    <vehicle id="west_177" type="CarC" route="WS" depart="311" color="yellow"/>
    <vehicle id="north_178" type="CarC" route="NS" depart="313" color="blue"/>
    <vehicle id="east_179" type="CarB" route="EN" depart="316" color="green"/>
    <vehicle id="west_180" type="CarC" route="WS" depart="318" color="yellow"/>
    <vehicle id="north_181" type="CarB" route="NS" depart="320" color="blue"/>
    <vehicle id="south_182" type="CarC" route="SW" depart="323" color="red"/>
    <vehicle id="south_183" type="CarD" route="SE" depart="324" color="red"/>
    <vehicle id="west_184" type="CarD" route="WS" depart="327" color="yellow"/>
    <vehicle id="west_185" type="CarB" route="WE" depart="328" color="yellow"/>
    <vehicle id="west_186" type="CarB" route="WN" depart="330" color="yellow"/>
    <vehicle id="west_187" type="CarD" route="WS" depart="336" color="yellow"/>
    <vehicle id="west_188" type="CarA" route="WE" depart="339" color="yellow"/>
    <vehicle id="north_189" type="CarA" route="NS" depart="340" color="blue"/>
    <vehicle id="west_190" type="CarA" route="WN" depart="341" color="yellow"/>
    <vehicle id="west_191" type="CarB" route="WE" depart="348" color="yellow"/>
    <vehicle id="west_192" type="CarC" route="WS" depart="352" color="yellow"/>
    <vehicle id="north_193" type="CarC" route="NE" depart="354" color="blue"/>
    <vehicle id="south_194" type="CarA" route="SW" depart="354" color="red"/>
    <vehicle id="south_195" type="CarC" route="SE" depart="357" color="red"/>
    <vehicle id="west_196" type="CarD" route="WE" depart="358" color="yellow"/>
    <vehicle id="east_197" type="CarA" route="ES" depart="360" color="green"/>
    <vehicle id="west_198" type="CarA" route="WN" depart="362" color="yellow"/>
    <vehicle id="west_199" type="CarD" route="WE" depart="364" color="yellow"/>
    <vehicle id="east_200" type="CarA" route="EW" depart="365" color="green"/>
    <vehicle id="west_201" type="CarA" route="WN" depart="365" color="yellow"/>
    <vehicle id="east_202" type="CarC" route="ES" depart="367" color="green"/>
    <vehicle id="west_203" type="CarB" route="WN" depart="367" color="yellow"/>
    <vehicle id="south_204" type="CarB" route="SW" depart="369" color="red"/>
    <vehicle id="south_205" type="CarC" route="SE" depart="373" color="red"/>
    <vehicle id="east_206" type="CarA" route="ES" depart="373" color="green"/>
    <vehicle id="south_207" type="CarC" route="SN" depart="375" color="red"/>
    <vehicle id="east_208" type="CarD" route="ES" depart="375" color="green"/>
    <vehicle id="east_209" type="CarD" route="ES" depart="376" color="green"/>
    <vehicle id="north_210" type="CarA" route="NE" depart="378" color="blue"/>
    <vehicle id="west_211" type="CarA" route="WE" depart="378" color="yellow"/>
    <vehicle id="south_212" type="CarB" route="SN" depart="384" color="red"/>
    <vehicle id="west_213" type="CarB" route="WE" depart="386" color="yellow"/>
    <vehicle id="east_214" type="CarA" route="EN" depart="387" color="green"/>
    <vehicle id="west_215" type="CarC" route="WS" depart="387" color="yellow"/>
    <vehicle id="north_216" type="CarB" route="NW" depart="388" color="blue"/>
    <vehicle id="north_217" type="CarB" route="NE" depart="389" color="blue"/>
    <vehicle id="north_218" type="CarD" route="NW" depart="392" color="blue"/>
    <vehicle id="west_219" type="CarD" route="WS" depart="394" color="yellow"/>
    <vehicle id="south_220" type="CarA" route="SN" depart="397" color="red"/>
    <vehicle id="south_221" type="CarA" route="SW" depart="398" color="red"/>
    <vehicle id="east_222" type="CarD" route="EW" depart="401" color="green"/>
    <vehicle id="west_223" type="CarB" route="WE" depart="401" color="yellow"/>
    <vehicle id="north_224" type="CarB" route="NW" depart="405" color="blue"/>
    <vehicle id="west_225" type="CarD" route="WN" depart="406" color="yellow"/>
    <vehicle id="east_226" type="CarD" route="EN" depart="412" color="green"/>
    <vehicle id="east_227" type="CarB" route="ES" depart="414" color="green"/>
    <vehicle id="north_228" type="CarA" route="NE" depart="416" color="blue"/>
    <vehicle id="north_229" type="CarC" route="NW" depart="417" color="blue"/>
    <vehicle id="west_230" type="CarA" route="WN" depart="417" color="yellow"/>
    <vehicle id="west_231" type="CarC" route="WS" depart="421" color="yellow"/>
    <vehicle id="north_232" type="CarA" route="NS" depart="422" color="blue"/>
    <vehicle id="east_233" type="CarA" route="ES" depart="423" color="green"/>
    <vehicle id="west_234" type="CarD" route="WN" depart="424" color="yellow"/>
    <vehicle id="east_235" type="CarB" route="EW" depart="425" color="green"/>
    <vehicle id="north_236" type="CarA" route="NS" depart="427" color="blue"/>
    <vehicle id="west_237" type="CarD" route="WS" depart="429" color="yellow"/>
    <vehicle id="south_238" type="CarD" route="SN" depart="431" color="red"/>
    <vehicle id="north_239" type="CarD" route="NE" depart="433" color="blue"/>
    <vehicle id="east_240" type="CarC" route="EN" depart="433" color="green"/>
    <vehicle id="east_241" type="CarB" route="EN" depart="434" color="green"/>
    <vehicle id="south_242" type="CarB" route="SN" depart="435" color="red"/>
    <vehicle id="north_243" type="CarA" route="NE" depart="436" color="blue"/>
    <vehicle id="east_244" type="CarD" route="EW" depart="437" color="green"/>
    <vehicle id="west_245" type="CarB" route="WN" depart="438" color="yellow"/>
    <vehicle id="north_246" type="CarB" route="NE" depart="439" color="blue"/>
    <vehicle id="east_247" type="CarA" route="EN" depart="439" color="green"/>
    <vehicle id="east_248" type="CarD" route="EN" depart="440" color="green"/>
    <vehicle id="west_249" type="CarD" route="WN" depart="442" color="yellow"/>
    <vehicle id="south_250" type="CarB" route="SW" depart="451" color="red"/>
    <vehicle id="north_251" type="CarC" route="NW" depart="454" color="blue"/>
    <vehicle id="west_252" type="CarC" route="WE" depart="454" color="yellow"/>
    <vehicle id="north_253" type="CarC" route="NS" depart="456" color="blue"/>
    <vehicle id="east_254" type="CarB" route="EN" depart="458" color="green"/>
    <vehicle id="south_255" type="CarC" route="SW" depart="462" color="red"/>
    <vehicle id="west_256" type="CarA" route="WE" depart="462" color="yellow"/>
    <vehicle id="south_257" type="CarA" route="SE" depart="465" color="red"/>
    <vehicle id="north_258" type="CarD" route="NS" depart="467" color="blue"/>
    <vehicle id="east_259" type="CarA" route="EN" depart="471" color="green"/>
    <vehicle id="south_260" type="CarB" route="SN" depart="475" color="red"/>
    <vehicle id="east_261" type="CarA" route="ES" depart="475" color="green"/>
    <vehicle id="west_262" type="CarD" route="WE" depart="475" color="yellow"/>
    <vehicle id="east_263" type="CarD" route="EN" depart="477" color="green"/>
    <vehicle id="west_264" type="CarD" route="WN" depart="479" color="yellow"/>
    <vehicle id="west_265" type="CarC" route="WE" depart="480" color="yellow"/>
    <vehicle id="south_266" type="CarD" route="SW" depart="481" color="red"/>
    <vehicle id="south_267" type="CarA" route="SN" depart="485" color="red"/>
    <vehicle id="east_268" type="CarB" route="ES" depart="485" color="green"/>
    <vehicle id="west_269" type="CarD" route="WE" depart="487" color="yellow"/>
    <vehicle id="west_270" type="CarA" route="WE" depart="488" color="yellow"/>
    <vehicle id="west_271" type="CarB" route="WS" depart="491" color="yellow"/>
    <vehicle id="north_272" type="CarC" route="NW" depart="493" color="blue"/>
    <vehicle id="south_273" type="CarA" route="SE" depart="494" color="red"/>
    <vehicle id="north_274" type="CarD" route="NS" depart="497" color="blue"/>
    <vehicle id="east_275" type="CarB" route="EW" depart="497" color="green"/>
    <vehicle id="west_276" type="CarA" route="WE" depart="497" color="yellow"/>
    <vehicle id="south_277" type="CarA" route="SE" depart="498" color="red"/>
    <vehicle id="west_278" type="CarA" route="WS" depart="501" color="yellow"/>
    <vehicle id="east_279" type="CarD" route="EW" depart="502" color="green"/>
    <vehicle id="south_280" type="CarB" route="SN" depart="503" color="red"/>
    <vehicle id="west_281" type="CarD" route="WN" depart="503" color="yellow"/>
    <vehicle id="west_282" type="CarA" route="WE" depart="504" color="yellow"/>
    <vehicle id="south_283" type="CarB" route="SE" depart="505" color="red"/>
    <vehicle id="north_284" type="CarD" route="NS" depart="507" color="blue"/>
    <vehicle id="south_285" type="CarA" route="SN" depart="508" color="red"/>
    <vehicle id="east_286" type="CarD" route="EW" depart="511" color="green"/>
    <vehicle id="west_287" type="CarC" route="WE" depart="513" color="yellow"/>
    <vehicle id="south_288" type="CarB" route="SN" depart="515" color="red"/>
    <vehicle id="east_289" type="CarD" route="EN" depart="515" color="green"/>
    <vehicle id="north_290" type="CarC" route="NE" depart="517" color="blue"/>
    <vehicle id="west_291" type="CarC" route="WE" depart="519" color="yellow"/>
    <vehicle id="south_292" type="CarB" route="SN" depart="520" color="red"/>
    <vehicle id="west_293" type="CarC" route="WE" depart="521" color="yellow"/>
    <vehicle id="east_294" type="CarB" route="EW" depart="523" color="green"/>
    <vehicle id="south_295" type="CarB" route="SW" depart="524" color="red"/>
    <vehicle id="east_296" type="CarC" route="EW" depart="524" color="green"/>
    <vehicle id="west_297" type="CarB" route="WS" depart="524" color="yellow"/>
    <vehicle id="south_298" type="CarA" route="SW" depart="527" color="red"/>
    <vehicle id="west_299" type="CarC" route="WS" depart="530" color="yellow"/>
    <vehicle id="south_300" type="CarB" route="SE" depart="532" color="red"/>
    <vehicle id="south_301" type="CarC" route="SN" depart="533" color="red"/>
    <vehicle id="north_302" type="CarA" route="NE" depart="536" color="blue"/>
    <vehicle id="south_303" type="CarD" route="SE" depart="537" color="red"/>
    <vehicle id="west_304" type="CarA" route="WS" depart="537" color="yellow"/>
    <vehicle id="south_305" type="CarC" route="SW" depart="538" color="red"/>
    <vehicle id="east_306" type="CarD" route="EW" depart="538" color="green"/>
    <vehicle id="west_307" type="CarA" route="WN" depart="539" color="yellow"/>
    <vehicle id="south_308" type="CarB" route="SE" depart="540" color="red"/>
    <vehicle id="west_309" type="CarD" route="WN" depart="542" color="yellow"/>
    <vehicle id="east_310" type="CarC" route="EN" depart="545" color="green"/>
    <vehicle id="south_311" type="CarB" route="SW" depart="546" color="red"/>
    <vehicle id="east_312" type="CarB" route="EN" depart="546" color="green"/>
    <vehicle id="west_313" type="CarB" route="WS" depart="547" color="yellow"/>
    <vehicle id="south_314" type="CarD" route="SW" depart="549" color="red"/>
    <vehicle id="east_315" type="CarB" route="EW" depart="549" color="green"/>
    <vehicle id="north_316" type="CarD" route="NS" depart="551" color="blue"/>
    <vehicle id="east_317" type="CarD" route="EW" depart="551" color="green"/>
    <vehicle id="north_318" type="CarA" route="NE" depart="552" color="blue"/>
    <vehicle id="north_319" type="CarA" route="NW" depart="553" color="blue"/>
    <vehicle id="south_320" type="CarA" route="SE" depart="554" color="red"/>
    <vehicle id="south_321" type="CarA" route="SN" depart="555" color="red"/>
    <vehicle id="south_322" type="CarC" route="SW" depart="560" color="red"/>
    <vehicle id="south_323" type="CarB" route="SE" depart="561" color="red"/>
    <vehicle id="north_324" type="CarA" route="NW" depart="562" color="blue"/>
    <vehicle id="west_325" type="CarD" route="WE" depart="564" color="yellow"/>
    <vehicle id="north_326" type="CarA" route="NS" depart="567" color="blue"/>
    <vehicle id="east_327" type="CarA" route="EW" depart="567" color="green"/>
    <vehicle id="west_328" type="CarD" route="WE" depart="567" color="yellow"/>
    <vehicle id="east_329" type="CarD" route="ES" depart="568" color="green"/>
    <vehicle id="east_330" type="CarA" route="EN" depart="570" color="green"/>
    <vehicle id="west_331" type="CarD" route="WE" depart="570" color="yellow"/>
    <vehicle id="west_332" type="CarD" route="WS" depart="575" color="yellow"/>
    <vehicle id="east_333" type="CarC" route="EW" depart="578" color="green"/>
    <vehicle id="west_334" type="CarA" route="WN" depart="579" color="yellow"/>
    <vehicle id="north_335" type="CarC" route="NE" depart="580" color="blue"/>
    <vehicle id="east_336" type="CarD" route="ES" depart="581" color="green"/>
    <vehicle id="east_337" type="CarB" route="EW" depart="582" color="green"/>
    <vehicle id="south_338" type="CarB" route="SN" depart="583" color="red"/>
    <vehicle id="south_339" type="CarC" route="SE" depart="584" color="red"/>
    <vehicle id="west_340" type="CarA" route="WE" depart="584" color="yellow"/>
    <vehicle id="east_341" type="CarA" route="EN" depart="585" color="green"/>
    <vehicle id="south_342" type="CarD" route="SE" depart="587" color="red"/>
    <vehicle id="south_343" type="CarB" route="SN" depart="589" color="red"/>
    <vehicle id="east_344" type="CarB" route="EW" depart="589" color="green"/>
    <vehicle id="east_345" type="CarA" route="ES" depart="590" color="green"/>
    <vehicle id="east_346" type="CarC" route="EW" depart="592" color="green"/>
    <vehicle id="west_347" type="CarC" route="WS" depart="592" color="yellow"/>
    <vehicle id="west_348" type="CarC" route="WE" depart="595" color="yellow"/>
    <vehicle id="south_349" type="CarA" route="SW" depart="597" color="red"/>
    <vehicle id="south_350" type="CarD" route="SE" depart="598" color="red"/>
    <vehicle id="south_351" type="CarB" route="SE" depart="600" color="red"/>
    <vehicle id="west_352" type="CarD" route="WS" depart="602" color="yellow"/>
    <vehicle id="west_353" type="CarC" route="WN" depart="603" color="yellow"/>
    <vehicle id="south_354" type="CarA" route="SN" depart="605" color="red"/>
    <vehicle id="north_355" type="CarB" route="NW" depart="606" color="blue"/>
    <vehicle id="south_356" type="CarB" route="SW" depart="607" color="red"/>
    <vehicle id="south_357" type="CarA" route="SW" depart="608" color="red"/>
    <vehicle id="west_358" type="CarD" route="WE" depart="612" color="yellow"/>
    <vehicle id="north_359" type="CarD" route="NS" depart="613" color="blue"/>
    <vehicle id="east_360" type="CarB" route="EN" depart="615" color="green"/>
    <vehicle id="east_361" type="CarD" route="EW" depart="620" color="green"/>
    <vehicle id="west_362" type="CarC" route="WE" depart="620" color="yellow"/>
    <vehicle id="south_363" type="CarD" route="SN" depart="621" color="red"/>
    <vehicle id="south_364" type="CarC" route="SE" depart="624" color="red"/>
    <vehicle id="west_365" type="CarD" route="WN" depart="625" color="yellow"/>
    <vehicle id="north_366" type="CarC" route="NW" depart="631" color="blue"/>
    <vehicle id="south_367" type="CarB" route="SN" depart="634" color="red"/>
    <vehicle id="west_368" type="CarC" route="WS" depart="635" color="yellow"/>