<?xml version="1.0" encoding="UTF-8"?>

<!-- generated on Sat Feb  3 15:05:08 2018 by SUMO netgenerate Version 0.30.0
<?xml version="1.0" encoding="UTF-8"?>

<configuration xmlns:xsi="http://www.w3.org/2001/XMLSchema-instance" xsi:noNamespaceSchemaLocation="http://sumo.dlr.de/xsd/netgenerateConfiguration.xsd">

    <grid_network>
        <grid value="true"/>
        <grid.x-number value="16"/>
        <grid.y-number value="8"/>
        <grid.x-length value="100"/>
        <grid.y-length value="140"/>
        <grid.attach-length value="100"/>
    </grid_network>

    <output>
        <output-file value="Seattle.net.xml"/>
    </output>

    <tls_building>
        <tls.guess value="true"/>
    </tls_building>

</configuration>
-->

<net version="0.27" xmlns:xsi="http://www.w3.org/2001/XMLSchema-instance" xsi:noNamespaceSchemaLocation="http://sumo.dlr.de/xsd/net_file.xsd">

    <location netOffset="0.00,0.00" convBoundary="0.00,0.00,1700.00,1180.00" origBoundary="0.00,0.00,1700.00,1180.00" projParameter="!"/>

    <edge id=":J0166_0" function="internal">
        <lane id=":J0166_0_0" index="0" speed="13.90" length="5.00" shape="98.35,104.75 98.16,103.39 97.57,102.43 96.61,101.84 95.25,101.65"/>
    </edge>
    <edge id=":J0166_1" function="internal">
        <lane id=":J0166_1_0" index="0" speed="13.90" length="9.50" shape="98.35,104.75 98.35,95.25"/>
    </edge>
    <edge id=":J0166_2" function="internal">
        <lane id=":J0166_2_0" index="0" speed="13.90" length="5.28" shape="98.35,104.75 98.75,101.95 99.95,99.95 100.05,99.89"/>
    </edge>
    <edge id=":J0166_3" function="internal">
        <lane id=":J0166_3_0" index="0" speed="13.90" length="2.41" shape="98.35,104.75 99.18,103.51 100.00,103.10"/>
    </edge>
    <edge id=":J0166_16" function="internal">
        <lane id=":J0166_16_0" index="0" speed="13.90" length="5.04" shape="100.05,99.89 101.95,98.75 104.75,98.35"/>
    </edge>
    <edge id=":J0166_17" function="internal">
        <lane id=":J0166_17_0" index="0" speed="13.90" length="2.41" shape="100.00,103.10 100.83,103.51 101.65,104.75"/>
    </edge>
    <edge id=":J0166_4" function="internal">
        <lane id=":J0166_4_0" index="0" speed="13.90" length="5.00" shape="104.75,101.65 103.39,101.84 102.43,102.43 101.84,103.39 101.65,104.75"/>
    </edge>
    <edge id=":J0166_5" function="internal">
        <lane id=":J0166_5_0" index="0" speed="13.90" length="9.50" shape="104.75,101.65 95.25,101.65"/>
    </edge>
    <edge id=":J0166_6" function="internal">
        <lane id=":J0166_6_0" index="0" speed="13.90" length="5.28" shape="104.75,101.65 101.95,101.25 99.95,100.05 99.89,99.95"/>
    </edge>
    <edge id=":J0166_7" function="internal">
        <lane id=":J0166_7_0" index="0" speed="13.90" length="2.41" shape="104.75,101.65 103.51,100.82 103.10,100.00"/>
    </edge>
    <edge id=":J0166_18" function="internal">
        <lane id=":J0166_18_0" index="0" speed="13.90" length="5.04" shape="99.89,99.95 98.75,98.05 98.35,95.25"/>
    </edge>
    <edge id=":J0166_19" function="internal">
        <lane id=":J0166_19_0" index="0" speed="13.90" length="2.41" shape="103.10,100.00 103.51,99.17 104.75,98.35"/>
    </edge>
    <edge id=":J0166_8" function="internal">
        <lane id=":J0166_8_0" index="0" speed="13.90" length="5.00" shape="101.65,95.25 101.84,96.61 102.43,97.57 103.39,98.16 104.75,98.35"/>
    </edge>
    <edge id=":J0166_9" function="internal">
        <lane id=":J0166_9_0" index="0" speed="13.90" length="9.50" shape="101.65,95.25 101.65,104.75"/>
    </edge>
    <edge id=":J0166_10" function="internal">
        <lane id=":J0166_10_0" index="0" speed="13.90" length="5.28" shape="101.65,95.25 101.25,98.05 100.05,100.05 99.95,100.11"/>
    </edge>
    <edge id=":J0166_11" function="internal">
        <lane id=":J0166_11_0" index="0" speed="13.90" length="2.41" shape="101.65,95.25 100.82,96.49 100.00,96.90"/>
    </edge>
    <edge id=":J0166_20" function="internal">
        <lane id=":J0166_20_0" index="0" speed="13.90" length="5.04" shape="99.95,100.11 98.05,101.25 95.25,101.65"/>
    </edge>
    <edge id=":J0166_21" function="internal">
        <lane id=":J0166_21_0" index="0" speed="13.90" length="2.41" shape="100.00,96.90 99.17,96.49 98.35,95.25"/>
    </edge>
    <edge id=":J0166_12" function="internal">
        <lane id=":J0166_12_0" index="0" speed="13.90" length="5.00" shape="95.25,98.35 96.61,98.16 97.57,97.57 98.16,96.61 98.35,95.25"/>
    </edge>
    <edge id=":J0166_13" function="internal">
        <lane id=":J0166_13_0" index="0" speed="13.90" length="9.50" shape="95.25,98.35 104.75,98.35"/>
    </edge>
    <edge id=":J0166_14" function="internal">
        <lane id=":J0166_14_0" index="0" speed="13.90" length="5.28" shape="95.25,98.35 98.05,98.75 100.05,99.95 100.11,100.05"/>
    </edge>
    <edge id=":J0166_15" function="internal">
        <lane id=":J0166_15_0" index="0" speed="13.90" length="2.41" shape="95.25,98.35 96.49,99.18 96.90,100.00"/>
    </edge>
    <edge id=":J0166_22" function="internal">
        <lane id=":J0166_22_0" index="0" speed="13.90" length="5.04" shape="100.11,100.05 101.25,101.95 101.65,104.75"/>
    </edge>
    <edge id=":J0166_23" function="internal">
        <lane id=":J0166_23_0" index="0" speed="13.90" length="2.41" shape="96.90,100.00 96.49,100.83 95.25,101.65"/>
    </edge>
    <edge id=":J0165_0" function="internal">
        <lane id=":J0165_0_0" index="0" speed="13.90" length="5.00" shape="98.35,244.75 98.16,243.39 97.57,242.43 96.61,241.84 95.25,241.65"/>
    </edge>
    <edge id=":J0165_1" function="internal">
        <lane id=":J0165_1_0" index="0" speed="13.90" length="9.50" shape="98.35,244.75 98.35,235.25"/>
    </edge>
    <edge id=":J0165_2" function="internal">
        <lane id=":J0165_2_0" index="0" speed="13.90" length="5.28" shape="98.35,244.75 98.75,241.95 99.95,239.95 100.05,239.89"/>
    </edge>
    <edge id=":J0165_3" function="internal">
        <lane id=":J0165_3_0" index="0" speed="13.90" length="2.41" shape="98.35,244.75 99.18,243.51 100.00,243.10"/>
    </edge>
    <edge id=":J0165_16" function="internal">
        <lane id=":J0165_16_0" index="0" speed="13.90" length="5.04" shape="100.05,239.89 101.95,238.75 104.75,238.35"/>
    </edge>
    <edge id=":J0165_17" function="internal">
        <lane id=":J0165_17_0" index="0" speed="13.90" length="2.41" shape="100.00,243.10 100.83,243.51 101.65,244.75"/>
    </edge>
    <edge id=":J0165_4" function="internal">
        <lane id=":J0165_4_0" index="0" speed="13.90" length="5.00" shape="104.75,241.65 103.39,241.84 102.43,242.43 101.84,243.39 101.65,244.75"/>
    </edge>
    <edge id=":J0165_5" function="internal">
        <lane id=":J0165_5_0" index="0" speed="13.90" length="9.50" shape="104.75,241.65 95.25,241.65"/>
    </edge>
    <edge id=":J0165_6" function="internal">
        <lane id=":J0165_6_0" index="0" speed="13.90" length="5.28" shape="104.75,241.65 101.95,241.25 99.95,240.05 99.89,239.95"/>
    </edge>
    <edge id=":J0165_7" function="internal">
        <lane id=":J0165_7_0" index="0" speed="13.90" length="2.41" shape="104.75,241.65 103.51,240.82 103.10,240.00"/>
    </edge>
    <edge id=":J0165_18" function="internal">
        <lane id=":J0165_18_0" index="0" speed="13.90" length="5.04" shape="99.89,239.95 98.75,238.05 98.35,235.25"/>
    </edge>
    <edge id=":J0165_19" function="internal">
        <lane id=":J0165_19_0" index="0" speed="13.90" length="2.41" shape="103.10,240.00 103.51,239.18 104.75,238.35"/>
    </edge>
    <edge id=":J0165_8" function="internal">
        <lane id=":J0165_8_0" index="0" speed="13.90" length="5.00" shape="101.65,235.25 101.84,236.61 102.43,237.58 103.39,238.16 104.75,238.35"/>
    </edge>
    <edge id=":J0165_9" function="internal">
        <lane id=":J0165_9_0" index="0" speed="13.90" length="9.50" shape="101.65,235.25 101.65,244.75"/>
    </edge>
    <edge id=":J0165_10" function="internal">
        <lane id=":J0165_10_0" index="0" speed="13.90" length="5.28" shape="101.65,235.25 101.25,238.05 100.05,240.05 99.95,240.11"/>
    </edge>
    <edge id=":J0165_11" function="internal">
        <lane id=":J0165_11_0" index="0" speed="13.90" length="2.41" shape="101.65,235.25 100.82,236.49 100.00,236.90"/>
    </edge>
    <edge id=":J0165_20" function="internal">
        <lane id=":J0165_20_0" index="0" speed="13.90" length="5.04" shape="99.95,240.11 98.05,241.25 95.25,241.65"/>
    </edge>
    <edge id=":J0165_21" function="internal">
        <lane id=":J0165_21_0" index="0" speed="13.90" length="2.41" shape="100.00,236.90 99.17,236.49 98.35,235.25"/>
    </edge>
    <edge id=":J0165_12" function="internal">
        <lane id=":J0165_12_0" index="0" speed="13.90" length="5.00" shape="95.25,238.35 96.61,238.16 97.57,237.57 98.16,236.61 98.35,235.25"/>
    </edge>
    <edge id=":J0165_13" function="internal">
        <lane id=":J0165_13_0" index="0" speed="13.90" length="9.50" shape="95.25,238.35 104.75,238.35"/>
    </edge>
    <edge id=":J0165_14" function="internal">
        <lane id=":J0165_14_0" index="0" speed="13.90" length="5.28" shape="95.25,238.35 98.05,238.75 100.05,239.95 100.11,240.05"/>
    </edge>
    <edge id=":J0165_15" function="internal">
        <lane id=":J0165_15_0" index="0" speed="13.90" length="2.41" shape="95.25,238.35 96.49,239.18 96.90,240.00"/>
    </edge>
    <edge id=":J0165_22" function="internal">
        <lane id=":J0165_22_0" index="0" speed="13.90" length="5.04" shape="100.11,240.05 101.25,241.95 101.65,244.75"/>
    </edge>
    <edge id=":J0165_23" function="internal">
        <lane id=":J0165_23_0" index="0" speed="13.90" length="2.41" shape="96.90,240.00 96.49,240.82 95.25,241.65"/>
    </edge>
    <edge id=":J0164_0" function="internal">
        <lane id=":J0164_0_0" index="0" speed="13.90" length="5.00" shape="98.35,384.75 98.16,383.39 97.57,382.42 96.61,381.84 95.25,381.65"/>
    </edge>
    <edge id=":J0164_1" function="internal">
        <lane id=":J0164_1_0" index="0" speed="13.90" length="9.50" shape="98.35,384.75 98.35,375.25"/>
    </edge>
    <edge id=":J0164_2" function="internal">
        <lane id=":J0164_2_0" index="0" speed="13.90" length="5.28" shape="98.35,384.75 98.75,381.95 99.95,379.95 100.05,379.89"/>
    </edge>
    <edge id=":J0164_3" function="internal">
        <lane id=":J0164_3_0" index="0" speed="13.90" length="2.41" shape="98.35,384.75 99.18,383.51 100.00,383.10"/>
    </edge>
    <edge id=":J0164_16" function="internal">
        <lane id=":J0164_16_0" index="0" speed="13.90" length="5.04" shape="100.05,379.89 101.95,378.75 104.75,378.35"/>
    </edge>
    <edge id=":J0164_17" function="internal">
        <lane id=":J0164_17_0" index="0" speed="13.90" length="2.41" shape="100.00,383.10 100.83,383.51 101.65,384.75"/>
    </edge>
    <edge id=":J0164_4" function="internal">
        <lane id=":J0164_4_0" index="0" speed="13.90" length="5.00" shape="104.75,381.65 103.39,381.84 102.43,382.42 101.84,383.39 101.65,384.75"/>
    </edge>
    <edge id=":J0164_5" function="internal">
        <lane id=":J0164_5_0" index="0" speed="13.90" length="9.50" shape="104.75,381.65 95.25,381.65"/>
    </edge>
    <edge id=":J0164_6" function="internal">
        <lane id=":J0164_6_0" index="0" speed="13.90" length="5.28" shape="104.75,381.65 101.95,381.25 99.95,380.05 99.89,379.95"/>
    </edge>
    <edge id=":J0164_7" function="internal">
        <lane id=":J0164_7_0" index="0" speed="13.90" length="2.41" shape="104.75,381.65 103.51,380.83 103.10,380.00"/>
    </edge>
    <edge id=":J0164_18" function="internal">
        <lane id=":J0164_18_0" index="0" speed="13.90" length="5.04" shape="99.89,379.95 98.75,378.05 98.35,375.25"/>
    </edge>
    <edge id=":J0164_19" function="internal">
        <lane id=":J0164_19_0" index="0" speed="13.90" length="2.41" shape="103.10,380.00 103.51,379.18 104.75,378.35"/>
    </edge>
    <edge id=":J0164_8" function="internal">
        <lane id=":J0164_8_0" index="0" speed="13.90" length="5.00" shape="101.65,375.25 101.84,376.61 102.43,377.58 103.39,378.16 104.75,378.35"/>
    </edge>
    <edge id=":J0164_9" function="internal">
        <lane id=":J0164_9_0" index="0" speed="13.90" length="9.50" shape="101.65,375.25 101.65,384.75"/>
    </edge>
    <edge id=":J0164_10" function="internal">
        <lane id=":J0164_10_0" index="0" speed="13.90" length="5.28" shape="101.65,375.25 101.25,378.05 100.05,380.05 99.95,380.11"/>
    </edge>
    <edge id=":J0164_11" function="internal">
        <lane id=":J0164_11_0" index="0" speed="13.90" length="2.41" shape="101.65,375.25 100.82,376.49 100.00,376.90"/>
    </edge>
    <edge id=":J0164_20" function="internal">
        <lane id=":J0164_20_0" index="0" speed="13.90" length="5.04" shape="99.95,380.11 98.05,381.25 95.25,381.65"/>
    </edge>
    <edge id=":J0164_21" function="internal">
        <lane id=":J0164_21_0" index="0" speed="13.90" length="2.41" shape="100.00,376.90 99.17,376.49 98.35,375.25"/>
    </edge>
    <edge id=":J0164_12" function="internal">
        <lane id=":J0164_12_0" index="0" speed="13.90" length="5.00" shape="95.25,378.35 96.61,378.16 97.57,377.58 98.16,376.61 98.35,375.25"/>
    </edge>
    <edge id=":J0164_13" function="internal">
        <lane id=":J0164_13_0" index="0" speed="13.90" length="9.50" shape="95.25,378.35 104.75,378.35"/>
    </edge>
    <edge id=":J0164_14" function="internal">
        <lane id=":J0164_14_0" index="0" speed="13.90" length="5.28" shape="95.25,378.35 98.05,378.75 100.05,379.95 100.11,380.05"/>
    </edge>
    <edge id=":J0164_15" function="internal">
        <lane id=":J0164_15_0" index="0" speed="13.90" length="2.41" shape="95.25,378.35 96.49,379.17 96.90,380.00"/>
    </edge>
    <edge id=":J0164_22" function="internal">
        <lane id=":J0164_22_0" index="0" speed="13.90" length="5.04" shape="100.11,380.05 101.25,381.95 101.65,384.75"/>
    </edge>
    <edge id=":J0164_23" function="internal">
        <lane id=":J0164_23_0" index="0" speed="13.90" length="2.41" shape="96.90,380.00 96.49,380.82 95.25,381.65"/>
    </edge>
    <edge id=":J0163_0" function="internal">
        <lane id=":J0163_0_0" index="0" speed="13.90" length="5.00" shape="98.35,524.75 98.16,523.39 97.57,522.42 96.61,521.84 95.25,521.65"/>
    </edge>
    <edge id=":J0163_1" function="internal">
        <lane id=":J0163_1_0" index="0" speed="13.90" length="9.50" shape="98.35,524.75 98.35,515.25"/>
    </edge>
    <edge id=":J0163_2" function="internal">
        <lane id=":J0163_2_0" index="0" speed="13.90" length="5.28" shape="98.35,524.75 98.75,521.95 99.95,519.95 100.05,519.89"/>
    </edge>
    <edge id=":J0163_3" function="internal">
        <lane id=":J0163_3_0" index="0" speed="13.90" length="2.41" shape="98.35,524.75 99.18,523.51 100.00,523.10"/>
    </edge>
    <edge id=":J0163_16" function="internal">
        <lane id=":J0163_16_0" index="0" speed="13.90" length="5.04" shape="100.05,519.89 101.95,518.75 104.75,518.35"/>
    </edge>
    <edge id=":J0163_17" function="internal">
        <lane id=":J0163_17_0" index="0" speed="13.90" length="2.41" shape="100.00,523.10 100.83,523.51 101.65,524.75"/>
    </edge>
    <edge id=":J0163_4" function="internal">
        <lane id=":J0163_4_0" index="0" speed="13.90" length="5.00" shape="104.75,521.65 103.39,521.84 102.43,522.42 101.84,523.39 101.65,524.75"/>
    </edge>
    <edge id=":J0163_5" function="internal">
        <lane id=":J0163_5_0" index="0" speed="13.90" length="9.50" shape="104.75,521.65 95.25,521.65"/>
    </edge>
    <edge id=":J0163_6" function="internal">
        <lane id=":J0163_6_0" index="0" speed="13.90" length="5.28" shape="104.75,521.65 101.95,521.25 99.95,520.05 99.89,519.95"/>
    </edge>
    <edge id=":J0163_7" function="internal">
        <lane id=":J0163_7_0" index="0" speed="13.90" length="2.41" shape="104.75,521.65 103.51,520.82 103.10,520.00"/>
    </edge>
    <edge id=":J0163_18" function="internal">
        <lane id=":J0163_18_0" index="0" speed="13.90" length="5.04" shape="99.89,519.95 98.75,518.05 98.35,515.25"/>
    </edge>
    <edge id=":J0163_19" function="internal">
        <lane id=":J0163_19_0" index="0" speed="13.90" length="2.41" shape="103.10,520.00 103.51,519.18 104.75,518.35"/>
    </edge>
    <edge id=":J0163_8" function="internal">
        <lane id=":J0163_8_0" index="0" speed="13.90" length="5.00" shape="101.65,515.25 101.84,516.61 102.43,517.58 103.39,518.16 104.75,518.35"/>
    </edge>
    <edge id=":J0163_9" function="internal">
        <lane id=":J0163_9_0" index="0" speed="13.90" length="9.50" shape="101.65,515.25 101.65,524.75"/>
    </edge>
    <edge id=":J0163_10" function="internal">
        <lane id=":J0163_10_0" index="0" speed="13.90" length="5.28" shape="101.65,515.25 101.25,518.05 100.05,520.05 99.95,520.11"/>
    </edge>
    <edge id=":J0163_11" function="internal">
        <lane id=":J0163_11_0" index="0" speed="13.90" length="2.41" shape="101.65,515.25 100.82,516.49 100.00,516.90"/>
    </edge>
    <edge id=":J0163_20" function="internal">
        <lane id=":J0163_20_0" index="0" speed="13.90" length="5.04" shape="99.95,520.11 98.05,521.25 95.25,521.65"/>
    </edge>
    <edge id=":J0163_21" function="internal">
        <lane id=":J0163_21_0" index="0" speed="13.90" length="2.41" shape="100.00,516.90 99.17,516.49 98.35,515.25"/>
    </edge>
    <edge id=":J0163_12" function="internal">
        <lane id=":J0163_12_0" index="0" speed="13.90" length="5.00" shape="95.25,518.35 96.61,518.16 97.57,517.58 98.16,516.61 98.35,515.25"/>
    </edge>
    <edge id=":J0163_13" function="internal">
        <lane id=":J0163_13_0" index="0" speed="13.90" length="9.50" shape="95.25,518.35 104.75,518.35"/>
    </edge>
    <edge id=":J0163_14" function="internal">
        <lane id=":J0163_14_0" index="0" speed="13.90" length="5.28" shape="95.25,518.35 98.05,518.75 100.05,519.95 100.11,520.05"/>
    </edge>
    <edge id=":J0163_15" function="internal">
        <lane id=":J0163_15_0" index="0" speed="13.90" length="2.41" shape="95.25,518.35 96.49,519.18 96.90,520.00"/>
    </edge>
    <edge id=":J0163_22" function="internal">
        <lane id=":J0163_22_0" index="0" speed="13.90" length="5.04" shape="100.11,520.05 101.25,521.95 101.65,524.75"/>
    </edge>
    <edge id=":J0163_23" function="internal">
        <lane id=":J0163_23_0" index="0" speed="13.90" length="2.41" shape="96.90,520.00 96.49,520.82 95.25,521.65"/>
    </edge>
    <edge id=":J0162_0" function="internal">
        <lane id=":J0162_0_0" index="0" speed="13.90" length="5.00" shape="98.35,664.75 98.16,663.39 97.57,662.42 96.61,661.84 95.25,661.65"/>
    </edge>
    <edge id=":J0162_1" function="internal">
        <lane id=":J0162_1_0" index="0" speed="13.90" length="9.50" shape="98.35,664.75 98.35,655.25"/>
    </edge>
    <edge id=":J0162_2" function="internal">
        <lane id=":J0162_2_0" index="0" speed="13.90" length="5.28" shape="98.35,664.75 98.75,661.95 99.95,659.95 100.05,659.89"/>
    </edge>
    <edge id=":J0162_3" function="internal">
        <lane id=":J0162_3_0" index="0" speed="13.90" length="2.41" shape="98.35,664.75 99.18,663.51 100.00,663.10"/>
    </edge>
    <edge id=":J0162_16" function="internal">
        <lane id=":J0162_16_0" index="0" speed="13.90" length="5.04" shape="100.05,659.89 101.95,658.75 104.75,658.35"/>
    </edge>
    <edge id=":J0162_17" function="internal">
        <lane id=":J0162_17_0" index="0" speed="13.90" length="2.41" shape="100.00,663.10 100.83,663.51 101.65,664.75"/>
    </edge>
    <edge id=":J0162_4" function="internal">
        <lane id=":J0162_4_0" index="0" speed="13.90" length="5.00" shape="104.75,661.65 103.39,661.84 102.43,662.42 101.84,663.39 101.65,664.75"/>
    </edge>
    <edge id=":J0162_5" function="internal">
        <lane id=":J0162_5_0" index="0" speed="13.90" length="9.50" shape="104.75,661.65 95.25,661.65"/>
    </edge>
    <edge id=":J0162_6" function="internal">
        <lane id=":J0162_6_0" index="0" speed="13.90" length="5.28" shape="104.75,661.65 101.95,661.25 99.95,660.05 99.89,659.95"/>
    </edge>
    <edge id=":J0162_7" function="internal">
        <lane id=":J0162_7_0" index="0" speed="13.90" length="2.41" shape="104.75,661.65 103.51,660.82 103.10,660.00"/>
    </edge>
    <edge id=":J0162_18" function="internal">
        <lane id=":J0162_18_0" index="0" speed="13.90" length="5.04" shape="99.89,659.95 98.75,658.05 98.35,655.25"/>
    </edge>
    <edge id=":J0162_19" function="internal">
        <lane id=":J0162_19_0" index="0" speed="13.90" length="2.41" shape="103.10,660.00 103.51,659.17 104.75,658.35"/>
    </edge>
    <edge id=":J0162_8" function="internal">
        <lane id=":J0162_8_0" index="0" speed="13.90" length="5.00" shape="101.65,655.25 101.84,656.61 102.43,657.58 103.39,658.16 104.75,658.35"/>
    </edge>
    <edge id=":J0162_9" function="internal">
        <lane id=":J0162_9_0" index="0" speed="13.90" length="9.50" shape="101.65,655.25 101.65,664.75"/>
    </edge>
    <edge id=":J0162_10" function="internal">
        <lane id=":J0162_10_0" index="0" speed="13.90" length="5.28" shape="101.65,655.25 101.25,658.05 100.05,660.05 99.95,660.11"/>
    </edge>
    <edge id=":J0162_11" function="internal">
        <lane id=":J0162_11_0" index="0" speed="13.90" length="2.41" shape="101.65,655.25 100.82,656.49 100.00,656.90"/>
    </edge>
    <edge id=":J0162_20" function="internal">
        <lane id=":J0162_20_0" index="0" speed="13.90" length="5.04" shape="99.95,660.11 98.05,661.25 95.25,661.65"/>
    </edge>
    <edge id=":J0162_21" function="internal">
        <lane id=":J0162_21_0" index="0" speed="13.90" length="2.41" shape="100.00,656.90 99.17,656.49 98.35,655.25"/>
    </edge>
    <edge id=":J0162_12" function="internal">
        <lane id=":J0162_12_0" index="0" speed="13.90" length="5.00" shape="95.25,658.35 96.61,658.16 97.57,657.58 98.16,656.61 98.35,655.25"/>
    </edge>
    <edge id=":J0162_13" function="internal">
        <lane id=":J0162_13_0" index="0" speed="13.90" length="9.50" shape="95.25,658.35 104.75,658.35"/>
    </edge>
    <edge id=":J0162_14" function="internal">
        <lane id=":J0162_14_0" index="0" speed="13.90" length="5.28" shape="95.25,658.35 98.05,658.75 100.05,659.95 100.11,660.05"/>
    </edge>
    <edge id=":J0162_15" function="internal">
        <lane id=":J0162_15_0" index="0" speed="13.90" length="2.41" shape="95.25,658.35 96.49,659.18 96.90,660.00"/>
    </edge>
    <edge id=":J0162_22" function="internal">
        <lane id=":J0162_22_0" index="0" speed="13.90" length="5.04" shape="100.11,660.05 101.25,661.95 101.65,664.75"/>
    </edge>
    <edge id=":J0162_23" function="internal">
        <lane id=":J0162_23_0" index="0" speed="13.90" length="2.41" shape="96.90,660.00 96.49,660.83 95.25,661.65"/>
    </edge>
    <edge id=":J0161_0" function="internal">
        <lane id=":J0161_0_0" index="0" speed="13.90" length="5.00" shape="98.35,804.75 98.16,803.39 97.57,802.43 96.61,801.84 95.25,801.65"/>
    </edge>
    <edge id=":J0161_1" function="internal">
        <lane id=":J0161_1_0" index="0" speed="13.90" length="9.50" shape="98.35,804.75 98.35,795.25"/>
    </edge>
    <edge id=":J0161_2" function="internal">
        <lane id=":J0161_2_0" index="0" speed="13.90" length="5.28" shape="98.35,804.75 98.75,801.95 99.95,799.95 100.05,799.89"/>
    </edge>
    <edge id=":J0161_3" function="internal">
        <lane id=":J0161_3_0" index="0" speed="13.90" length="2.41" shape="98.35,804.75 99.18,803.51 100.00,803.10"/>
    </edge>
    <edge id=":J0161_16" function="internal">
        <lane id=":J0161_16_0" index="0" speed="13.90" length="5.04" shape="100.05,799.89 101.95,798.75 104.75,798.35"/>
    </edge>
    <edge id=":J0161_17" function="internal">
        <lane id=":J0161_17_0" index="0" speed="13.90" length="2.41" shape="100.00,803.10 100.83,803.51 101.65,804.75"/>
    </edge>
    <edge id=":J0161_4" function="internal">
        <lane id=":J0161_4_0" index="0" speed="13.90" length="5.00" shape="104.75,801.65 103.39,801.84 102.43,802.42 101.84,803.39 101.65,804.75"/>
    </edge>
    <edge id=":J0161_5" function="internal">
        <lane id=":J0161_5_0" index="0" speed="13.90" length="9.50" shape="104.75,801.65 95.25,801.65"/>
    </edge>
    <edge id=":J0161_6" function="internal">
        <lane id=":J0161_6_0" index="0" speed="13.90" length="5.28" shape="104.75,801.65 101.95,801.25 99.95,800.05 99.89,799.95"/>
    </edge>
    <edge id=":J0161_7" function="internal">
        <lane id=":J0161_7_0" index="0" speed="13.90" length="2.41" shape="104.75,801.65 103.51,800.82 103.10,800.00"/>
    </edge>
    <edge id=":J0161_18" function="internal">
        <lane id=":J0161_18_0" index="0" speed="13.90" length="5.04" shape="99.89,799.95 98.75,798.05 98.35,795.25"/>
    </edge>
    <edge id=":J0161_19" function="internal">
        <lane id=":J0161_19_0" index="0" speed="13.90" length="2.41" shape="103.10,800.00 103.51,799.17 104.75,798.35"/>
    </edge>
    <edge id=":J0161_8" function="internal">
        <lane id=":J0161_8_0" index="0" speed="13.90" length="5.00" shape="101.65,795.25 101.84,796.61 102.43,797.57 103.39,798.16 104.75,798.35"/>
    </edge>
    <edge id=":J0161_9" function="internal">
        <lane id=":J0161_9_0" index="0" speed="13.90" length="9.50" shape="101.65,795.25 101.65,804.75"/>
    </edge>
    <edge id=":J0161_10" function="internal">
        <lane id=":J0161_10_0" index="0" speed="13.90" length="5.28" shape="101.65,795.25 101.25,798.05 100.05,800.05 99.95,800.11"/>
    </edge>
    <edge id=":J0161_11" function="internal">
        <lane id=":J0161_11_0" index="0" speed="13.90" length="2.41" shape="101.65,795.25 100.82,796.49 100.00,796.90"/>
    </edge>
    <edge id=":J0161_20" function="internal">
        <lane id=":J0161_20_0" index="0" speed="13.90" length="5.04" shape="99.95,800.11 98.05,801.25 95.25,801.65"/>
    </edge>
    <edge id=":J0161_21" function="internal">
        <lane id=":J0161_21_0" index="0" speed="13.90" length="2.41" shape="100.00,796.90 99.17,796.49 98.35,795.25"/>
    </edge>
    <edge id=":J0161_12" function="internal">
        <lane id=":J0161_12_0" index="0" speed="13.90" length="5.00" shape="95.25,798.35 96.61,798.16 97.57,797.58 98.16,796.61 98.35,795.25"/>
    </edge>
    <edge id=":J0161_13" function="internal">
        <lane id=":J0161_13_0" index="0" speed="13.90" length="9.50" shape="95.25,798.35 104.75,798.35"/>
    </edge>
    <edge id=":J0161_14" function="internal">
        <lane id=":J0161_14_0" index="0" speed="13.90" length="5.28" shape="95.25,798.35 98.05,798.75 100.05,799.95 100.11,800.05"/>
    </edge>
    <edge id=":J0161_15" function="internal">
        <lane id=":J0161_15_0" index="0" speed="13.90" length="2.41" shape="95.25,798.35 96.49,799.18 96.90,800.00"/>
    </edge>
    <edge id=":J0161_22" function="internal">
        <lane id=":J0161_22_0" index="0" speed="13.90" length="5.04" shape="100.11,800.05 101.25,801.95 101.65,804.75"/>
    </edge>
    <edge id=":J0161_23" function="internal">
        <lane id=":J0161_23_0" index="0" speed="13.90" length="2.41" shape="96.90,800.00 96.49,800.83 95.25,801.65"/>
    </edge>
    <edge id=":J0160_0" function="internal">
        <lane id=":J0160_0_0" index="0" speed="13.90" length="5.00" shape="98.35,944.75 98.16,943.39 97.57,942.43 96.61,941.84 95.25,941.65"/>
    </edge>
    <edge id=":J0160_1" function="internal">
        <lane id=":J0160_1_0" index="0" speed="13.90" length="9.50" shape="98.35,944.75 98.35,935.25"/>
    </edge>
    <edge id=":J0160_2" function="internal">
        <lane id=":J0160_2_0" index="0" speed="13.90" length="5.28" shape="98.35,944.75 98.75,941.95 99.95,939.95 100.05,939.89"/>
    </edge>
    <edge id=":J0160_3" function="internal">
        <lane id=":J0160_3_0" index="0" speed="13.90" length="2.41" shape="98.35,944.75 99.18,943.51 100.00,943.10"/>
    </edge>
    <edge id=":J0160_16" function="internal">
        <lane id=":J0160_16_0" index="0" speed="13.90" length="5.04" shape="100.05,939.89 101.95,938.75 104.75,938.35"/>
    </edge>
    <edge id=":J0160_17" function="internal">
        <lane id=":J0160_17_0" index="0" speed="13.90" length="2.41" shape="100.00,943.10 100.83,943.51 101.65,944.75"/>
    </edge>
    <edge id=":J0160_4" function="internal">
        <lane id=":J0160_4_0" index="0" speed="13.90" length="5.00" shape="104.75,941.65 103.39,941.84 102.43,942.42 101.84,943.39 101.65,944.75"/>
    </edge>
    <edge id=":J0160_5" function="internal">
        <lane id=":J0160_5_0" index="0" speed="13.90" length="9.50" shape="104.75,941.65 95.25,941.65"/>
    </edge>
    <edge id=":J0160_6" function="internal">
        <lane id=":J0160_6_0" index="0" speed="13.90" length="5.28" shape="104.75,941.65 101.95,941.25 99.95,940.05 99.89,939.95"/>
    </edge>
    <edge id=":J0160_7" function="internal">
        <lane id=":J0160_7_0" index="0" speed="13.90" length="2.41" shape="104.75,941.65 103.51,940.83 103.10,940.00"/>
    </edge>
    <edge id=":J0160_18" function="internal">
        <lane id=":J0160_18_0" index="0" speed="13.90" length="5.04" shape="99.89,939.95 98.75,938.05 98.35,935.25"/>
    </edge>
    <edge id=":J0160_19" function="internal">
        <lane id=":J0160_19_0" index="0" speed="13.90" length="2.41" shape="103.10,940.00 103.51,939.17 104.75,938.35"/>
    </edge>
    <edge id=":J0160_8" function="internal">
        <lane id=":J0160_8_0" index="0" speed="13.90" length="5.00" shape="101.65,935.25 101.84,936.61 102.43,937.57 103.39,938.16 104.75,938.35"/>
    </edge>
    <edge id=":J0160_9" function="internal">
        <lane id=":J0160_9_0" index="0" speed="13.90" length="9.50" shape="101.65,935.25 101.65,944.75"/>
    </edge>
    <edge id=":J0160_10" function="internal">
        <lane id=":J0160_10_0" index="0" speed="13.90" length="5.28" shape="101.65,935.25 101.25,938.05 100.05,940.05 99.95,940.11"/>
    </edge>
    <edge id=":J0160_11" function="internal">
        <lane id=":J0160_11_0" index="0" speed="13.90" length="2.41" shape="101.65,935.25 100.82,936.49 100.00,936.90"/>
    </edge>